---- qbsp / ericw-tools v0.18.1 ----
Input file: qztest-snapper-compile.map
Output file: qztest-snapper.bsp

---- LoadMapFile ----
line 4: Unrecognised string escape - \Q
line 4: Unrecognised string escape - \M
line 4: Unrecognised string escape - \q
line 4: Unrecognised string escape - \q
line 4: Unrecognised string escape - \Q
line 4: Unrecognised string escape - \M
line 4: Unrecognised string escape - \q
line 4: Unrecognised string escape - \l
*** WARNING 06: No info_player_deathmatch entities in level
           36 faces
            6 brushes
            5 entities
            2 unique texnames
           14 texinfo

Opened WAD: U:\QuakeDev\Mods\qzone\texture_wads\qzone.wad
Opened WAD: U:\QuakeDev\Mods\qzone\texture_wads\lq_dev.wad
Processing hull 0...
---- Brush_LoadEntity ----
            6 brushes
           12 planes
---- CSGFaces ----
           36 brushfaces
           36 csgfaces
           42 mergedfaces
---- SolidBSP ----
           24 split nodes
            5 solid leafs
           19 empty leafs
            1 water leafs
            0 detail leafs
            0 detail illusionary leafs
            0 detail fence leafs
            0 illusionary visblocker leafs
          162 leaffaces
          162 nodefaces
---- Portalize ----
           20 vis leafs
           20 vis clusters
           40 vis portals
---- FillOutside ----
           18 outleafs
---- MergeAll ----
           12 mergefaces
---- SolidBSP ----
           11 split nodes
           10 solid leafs
            1 empty leafs
            1 water leafs
            0 detail leafs
            0 detail illusionary leafs
            0 detail fence leafs
            0 illusionary visblocker leafs
           52 leaffaces
           52 nodefaces
---- Portalize ----
            2 vis leafs
            2 vis clusters
            0 vis portals
---- Tjunc ----
           36 world edges
          144 edge points
           32 edges added by tjunctions
            0 faces added by tjunctions
---- MakeFaceEdges ----
---- GrowRegions ----
Processing hull 1...
*** WARNING 19: No entities in empty space -- no filling performed (hull 1)
Processing hull 2...
*** WARNING 19: No entities in empty space -- no filling performed (hull 2)
---- WriteBSPFile ----
Wrote qztest-snapper.bsp
           39 planes              780
           60 vertexes            720
           11 nodes               264
           11 texinfo             440
           52 faces              1040
          112 clipnodes           896
            3 leafs                84
           52 marksurfaces        104
          240 surfedges           960
          121 edges               484
            2 textures          49052
              lightdata             0
              visdata               0
              entdata             463

0.015 seconds elapsed
Peak memory usage: 563772 (0.5M)
